         256

 Ar   22.5446510      0.427390337       1.28727734    
 Ar   2.79023361       1.72639358       3.39368367    
 Ar   2.14221883       21.4819908       3.97586441    
 Ar   2.65328550      0.754177332       22.1899509    
 Ar   21.2748947       22.5112171       4.79980469    
 Ar   1.00009060      0.784427941       6.19734907    
 Ar  0.757126510       20.7590694       9.93793774    
 Ar   1.72655547       4.36610126       6.18372536    
 Ar   22.4615688      0.717629135       12.1172962    
 Ar   1.56552935       3.24133253       13.1797218    
 Ar   2.75596476       22.9491062       14.9929457    
 Ar   1.43374145       2.13424754       9.65384674    
 Ar  0.588118732       1.05704939       17.2962055    
 Ar   1.30350697       3.94655180       20.1653118    
 Ar   4.76283741       1.56685233       19.2605305    
 Ar   2.08210683       4.19799566       16.5509968    
 Ar   22.6058369       4.00750160      0.246128172    
 Ar   22.9500828       9.18278980       3.26413727    
 Ar   2.81834531       7.33791494       3.96810794    
 Ar   2.84856033       10.6605701       1.94337285    
 Ar   22.3895378       3.84454989       3.82605219    
 Ar   21.6457348       6.77951336       7.85465813    
 Ar   1.32443678       8.77658653       7.39905310    
 Ar   3.38598371       6.58202076       9.35726357    
 Ar   23.2556267       6.29380989       11.2277527    
 Ar   21.1597099       8.60863304       14.0483646    
 Ar   2.44240975       7.10071325       13.7553673    
 Ar   1.15555751       9.61391926       11.1079092    
 Ar   21.6583099       7.17774916       17.1212139    
 Ar   22.8038025       11.1109257       18.9268837    
 Ar   1.21892118       6.96661329       1.01094913    
 Ar   3.05462170       7.58765602       17.8545856    
 Ar  0.560309947       11.1984291       22.8318195    
 Ar   1.00915527       17.3741474       4.26342964    
 Ar  0.565464258       14.3868656       1.90513551    
 Ar   1.33408773       14.2008896       21.3224869    
 Ar   3.76274061       11.1841841       5.49496174    
 Ar   1.34166014       15.3924341       8.28218174    
 Ar   2.13732266       11.9713249       8.89046383    
 Ar   3.18829274       14.5044222       4.91916037    
 Ar   1.06240356       13.4317379       12.0674229    
 Ar   21.4960327       16.8623466       14.4844112    
 Ar   1.44139397       11.1540556       14.5841322    
 Ar   3.94978714       14.6656866       11.4754658    
 Ar   22.6980457       13.8959703       16.2701721    
 Ar   20.9202957       15.2709913       22.6329536    
 Ar   2.62110806       10.7993689       19.7573662    
 Ar   5.46706486       14.3413429       18.7397175    
 Ar  0.286194354       17.6376038       22.9286976    
 Ar   21.6524925       20.2341232      0.945325673    
 Ar   3.71030617       17.2379742       1.23256457    
 Ar   2.13414788       20.9650536      0.267722845    
 Ar  0.865482092       19.2923527       7.06597948    
 Ar   20.5722370       20.7790051       11.0929928    
 Ar   5.08566904       15.6894274       7.62954235    
 Ar   4.06354904       18.8609676       6.15235996    
 Ar   23.2107143       16.8452034       11.6667738    
 Ar   22.2619476       20.7159710       14.9925194    
 Ar   1.87309444       15.8858442       14.5743027    
 Ar   1.89919007       19.6620960       13.0410271    
 Ar   21.9413147       16.4716187       19.4862671    
 Ar   22.9179840       20.2209282       20.3597355    
 Ar   2.62923217       18.1317577       20.4577045    
 Ar   1.22353256       18.6358700       17.1841373    
 Ar   5.65406942       22.0544510       22.5790367    
 Ar   6.46024942       1.31804681       1.85866559    
 Ar   8.07218838       22.0458012       3.96790481    
 Ar   7.06009340       2.67856431       22.3066521    
 Ar   4.67363834       1.03680372       6.22299719    
 Ar   7.75806999       1.47103560       10.0304756    
 Ar   8.52244568       21.6662827       7.86321926    
 Ar   8.12895584       2.43226242       4.67163706    
 Ar   5.69800806      0.398076266       13.2247343    
 Ar   4.97534370       5.39794540       12.1905489    
 Ar   8.59468269       21.6381645       14.5907736    
 Ar   8.40335941       3.64729047       13.0893145    
 Ar   5.58255339       21.5888233       16.5063057    
 Ar   5.30908966       2.48093987       15.9057713    
 Ar   7.64197922       22.9179230       19.0585194    
 Ar   9.35239983       1.23719537       16.2858276    
 Ar   7.70801973       6.30708551       20.7761745    
 Ar   5.31882095       7.46720791       1.57380605    
 Ar   8.96360683       6.15879154       3.37937164    
 Ar   9.22023392       9.00820160      0.745313704    
 Ar   5.37026739       4.86874104       4.43086147    
 Ar   5.64245939       9.00740051       10.0588331    
 Ar   8.32916641       6.24996614       9.04552174    
 Ar   5.74433470       7.72850418       6.50191927    
 Ar   5.22654915       3.75259519       8.85395336    
 Ar   8.08548832       7.54640913       13.7518969    
 Ar   9.79836464       5.93577909       16.4521770    
 Ar   9.31768990       9.20650005       11.0151844    
 Ar   5.79268026       5.81840897       16.5549641    
 Ar   5.97217798       8.99784946       19.9715214    
 Ar   8.32282925       3.35875773       19.2207203    
 Ar   7.33345127       9.84843349       16.4617424    
 Ar   4.56917477       12.3796530       21.8133945    
 Ar   5.06502914       13.7980795       1.93347609    
 Ar   10.2657423       12.1207266       4.95998287    
 Ar   7.47773886       14.8542662       22.7687092    
 Ar   7.56699800       10.9267092       2.88597345    
 Ar   6.85666370       12.7520695       10.1015263    
 Ar   6.76078892       12.2228365       5.92334270    
 Ar   9.38811970       15.2389879       7.12508059    
 Ar   4.39189196       10.8785906       12.6525908    
 Ar   5.51564074       14.5927896       14.4156446    
 Ar   8.31148624       11.6623707       13.7775459    
 Ar   10.1873350       14.5132227       10.2842455    
 Ar   4.23805237       11.6989965       16.2682076    
 Ar   9.81160355       12.2432146       17.8319569    
 Ar   8.13621902       11.3623381       21.1258430    
 Ar   11.8076229       15.2832403       17.7619267    
 Ar   5.94442177       18.0336990       22.1056118    
 Ar   5.60421944       20.2174225       2.76648855    
 Ar   8.18849277       17.4504681       2.00555158    
 Ar   8.93520164       20.9942093      0.284069896    
 Ar   6.64168215       15.3883133       4.54262733    
 Ar   4.91338921       22.2553520       9.55561161    
 Ar   7.13545942       17.6968632       9.40409279    
 Ar   7.99266100       18.5856514       5.67566347    
 Ar   3.77095389       18.5375690       10.4306364    
 Ar   5.82152033       19.0074692       14.1179695    
 Ar   9.43251228       17.1890602       13.0983438    
 Ar   7.96840715       20.7883396       11.5928030    
 Ar   5.91355610       17.4800549       17.4955482    
 Ar   3.08488750       21.3234959       19.1116009    
 Ar   9.60747433       18.3091660       20.7537117    
 Ar   8.78034401       20.1050739       17.7728996    
 Ar   10.1416540      0.632514238       1.68810582    
 Ar   11.1494370       3.64205432       3.04290509    
 Ar   14.8296528       22.2946320       3.53303480    
 Ar   15.0108929       1.73240674       21.6574993    
 Ar   11.0729542      0.714608371       5.68010521    
 Ar   10.9678993       4.52706957       10.5169725    
 Ar   14.2941227       23.0117931       6.72391891    
 Ar   14.3622894       2.17462730       1.87853336    
 Ar   11.3976460      0.869307637       9.05703831    
 Ar   10.5232716       1.00991762       13.1463509    
 Ar   15.1104527       22.6826534       12.2152042    
 Ar   13.4447823       2.43002868       11.7768698    
 Ar   12.4388828       22.7033272       15.7213621    
 Ar   11.3481007       3.72843862       20.5601807    
 Ar   14.7486515      0.911702037       18.1405239    
 Ar   12.4066477       3.48686290       16.6864853    
 Ar   9.98281765       5.23044634       3.12033407E-02
 Ar   11.5761251       9.15626907       3.38909602    
 Ar   13.3845310       6.13676500       3.93330026    
 Ar   15.3843813       8.57113266       1.23469412    
 Ar   11.1882839       4.31957102       6.55355453    
 Ar   9.51304531       8.92263794       6.46395493    
 Ar   14.1248274       5.55687571       9.08663654    
 Ar   16.5807705       7.42362213       4.51242065    
 Ar   12.2722855       5.97013235       13.4447508    
 Ar   11.1104965       9.48311710       15.9073324    
 Ar   14.7589731       6.70780659       15.6838388    
 Ar   14.4556971       8.52037334       11.5150986    
 Ar   14.7052155       5.09602213       19.2208843    
 Ar   11.2881746       8.60228539       19.4573536    
 Ar   13.5021467       7.02994299       21.7397823    
 Ar   15.6887913       8.50446606       18.7514820    
 Ar   12.3100023       10.2472801       22.7874699    
 Ar   12.7429819       14.3113899       3.65733933    
 Ar   14.7608728       11.8221903       4.17672682    
 Ar   13.4094419       15.2326469      0.398013771    
 Ar   12.6071672       13.5921612       7.11705923    
 Ar   10.0216427       11.4652576       8.31569958    
 Ar   13.6399269       8.52460098       7.60573149    
 Ar   14.1752720       17.5610600       6.93598127    
 Ar   12.6559391       11.3000383       10.9819221    
 Ar   8.57446861       15.2083836       16.4171009    
 Ar   12.6183558       12.1914921       14.4028988    
 Ar   13.9740543       15.4234486       10.2475863    
 Ar   13.3677292       11.3219090       18.2530327    
 Ar   11.7830629       13.2932835       20.8996143    
 Ar   15.3545408       11.8430185       21.9551144    
 Ar   15.3889942       15.6104574       16.5476551    
 Ar   11.5502996       18.5052872      0.551313221    
 Ar   11.4335470       21.0156307       3.63770962    
 Ar   15.1009321       18.1113567       1.97806549    
 Ar   13.9169407       21.3470058       23.2467365    
 Ar   9.29496193       14.4565353       2.52866983    
 Ar   11.6679039       20.2683468       7.39410496    
 Ar   18.5094433       17.3952579       6.60902309    
 Ar   11.0446129       17.9173279       4.90353775    
 Ar   11.6893816       17.7513771       10.0025339    
 Ar   11.3421698       21.2777805       11.2873983    
 Ar   14.0671597       16.8429089       13.3669586    
 Ar   14.7882738       20.6228924       9.12062931    
 Ar   12.1981077       19.0379982       16.6767197    
 Ar   13.6490107       21.1158028       19.5104656    
 Ar   12.9812899       17.8125820       20.1495781    
 Ar   15.9346323       19.4722424       16.4428310    
 Ar   18.6674995      0.981801867       21.8212872    
 Ar   16.3093624       3.41040850       4.67882729    
 Ar   19.3363533       1.79882145       2.53174305    
 Ar   19.2268333       4.61650658       21.7447758    
 Ar   16.3308659       2.24374127       8.08576584    
 Ar   17.2745380       5.46742344       7.48428106    
 Ar   21.3519974       8.85474030E-03   8.48216343    
 Ar   21.0192928       3.33674455       6.99216986    
 Ar   19.3281841       2.14293242       13.8672771    
 Ar   16.7589417       4.06818533       15.4015779    
 Ar   17.4708729       22.7307758       16.5575542    
 Ar   20.0754051       3.04373550       10.4033470    
 Ar   20.5521049      0.830501020       17.4671764    
 Ar   18.0275841       2.85478830       18.7224636    
 Ar   22.1714344      0.941810787       20.9781094    
 Ar   21.7508011       3.90751386       16.1778412    
 Ar   16.6383839       5.28842974       1.28046286    
 Ar   19.1895733       9.18601608       2.67401743    
 Ar   19.8572712       5.68589973       1.97688830    
 Ar   20.2334175       10.3467770       22.7653027    
 Ar   19.8651047       6.97379875       5.12979269    
 Ar   17.0054665       9.10902214       7.59664249    
 Ar   19.0734997       7.27562284       10.2094574    
 Ar   20.3339119       10.4431639       6.06304789    
 Ar   16.4699574       4.62673903       11.2768164    
 Ar   15.9177532       10.5285559       14.9651775    
 Ar   19.5989380       5.78260899       14.3885164    
 Ar   21.9629250       10.6805105       8.87415791    
 Ar   18.0169373       6.17493820       17.9096241    
 Ar   17.7423134       7.77620840       21.8983173    
 Ar  0.273062408       7.20215750       20.5449486    
 Ar   19.6130638       10.1970854       17.7291374    
 Ar   17.1892834       12.0528946       1.51631260    
 Ar   16.6223259       15.4425211       3.69655657    
 Ar   20.4973183       12.8863087       2.11406302    
 Ar   17.2487698       14.8969879       23.1984806    
 Ar   16.8902321       13.3870411       6.57084990    
 Ar   18.0131664       15.3940477       10.5109644    
 Ar   20.7354336       13.6534462       8.25325012    
 Ar  0.283734232       12.1745710       5.74405527    
 Ar   15.2293596       12.1934795       9.37447262    
 Ar   16.4881592       13.8250866       13.2155123    
 Ar   18.3770847       10.1269417       12.6552162    
 Ar   20.9626026       13.9980373       12.4443512    
 Ar   16.9695225       12.7634506       18.8083725    
 Ar   15.7613249       15.6130552       20.2793083    
 Ar   20.1476460       13.6012049       19.5382004    
 Ar   18.9231014       13.1539927       16.0184536    
 Ar   18.9948349       17.2758350       2.02056241    
 Ar   17.8259258      0.399872959       5.32041788    
 Ar   20.6086712       15.1735706       4.89099979    
 Ar   18.2673740       21.2558537       2.11570764    
 Ar   16.6262913       19.8939667       5.10965967    
 Ar   18.4854279       20.7233639       7.99678421    
 Ar   21.2770653       18.3070145       8.76754475    
 Ar   20.8785057       18.7212963       4.56435061    
 Ar   16.7033939       18.5373955       11.5518379    
 Ar   18.4319153       20.7950249       13.9654293    
 Ar   17.9785671       16.8196125       14.6602192    
 Ar   18.0027237       23.1334038       10.8063078    
 Ar   15.9034739       18.8886909       21.7827454    
 Ar   17.6321888       21.2749863       19.7546883    
 Ar   19.6426125       18.9110088       21.4318104    
 Ar   19.1267548       19.1238365       17.2411537    
