         256

 Ar   0.00000000       0.00000000       0.00000000    
 Ar   0.00000000       2.90695930       2.90695930    
 Ar   2.90695930       0.00000000       2.90695930    
 Ar   2.90695930       2.90695930       0.00000000    
 Ar   0.00000000       0.00000000       5.81391859    
 Ar   0.00000000       2.90695930       8.72087765    
 Ar   2.90695930       0.00000000       8.72087765    
 Ar   2.90695930       2.90695930       5.81391859    
 Ar   0.00000000       0.00000000       11.6278372    
 Ar   0.00000000       2.90695930       14.5347967    
 Ar   2.90695930       0.00000000       14.5347967    
 Ar   2.90695930       2.90695930       11.6278372    
 Ar   0.00000000       0.00000000       17.4417553    
 Ar   0.00000000       2.90695930       20.3487148    
 Ar   2.90695930       0.00000000       20.3487148    
 Ar   2.90695930       2.90695930       17.4417553    
 Ar   0.00000000       5.81391859       0.00000000    
 Ar   0.00000000       8.72087765       2.90695930    
 Ar   2.90695930       5.81391859       2.90695930    
 Ar   2.90695930       8.72087765       0.00000000    
 Ar   0.00000000       5.81391859       5.81391859    
 Ar   0.00000000       8.72087765       8.72087765    
 Ar   2.90695930       5.81391859       8.72087765    
 Ar   2.90695930       8.72087765       5.81391859    
 Ar   0.00000000       5.81391859       11.6278372    
 Ar   0.00000000       8.72087765       14.5347967    
 Ar   2.90695930       5.81391859       14.5347967    
 Ar   2.90695930       8.72087765       11.6278372    
 Ar   0.00000000       5.81391859       17.4417553    
 Ar   0.00000000       8.72087765       20.3487148    
 Ar   2.90695930       5.81391859       20.3487148    
 Ar   2.90695930       8.72087765       17.4417553    
 Ar   0.00000000       11.6278372       0.00000000    
 Ar   0.00000000       14.5347967       2.90695930    
 Ar   2.90695930       11.6278372       2.90695930    
 Ar   2.90695930       14.5347967       0.00000000    
 Ar   0.00000000       11.6278372       5.81391859    
 Ar   0.00000000       14.5347967       8.72087765    
 Ar   2.90695930       11.6278372       8.72087765    
 Ar   2.90695930       14.5347967       5.81391859    
 Ar   0.00000000       11.6278372       11.6278372    
 Ar   0.00000000       14.5347967       14.5347967    
 Ar   2.90695930       11.6278372       14.5347967    
 Ar   2.90695930       14.5347967       11.6278372    
 Ar   0.00000000       11.6278372       17.4417553    
 Ar   0.00000000       14.5347967       20.3487148    
 Ar   2.90695930       11.6278372       20.3487148    
 Ar   2.90695930       14.5347967       17.4417553    
 Ar   0.00000000       17.4417553       0.00000000    
 Ar   0.00000000       20.3487148       2.90695930    
 Ar   2.90695930       17.4417553       2.90695930    
 Ar   2.90695930       20.3487148       0.00000000    
 Ar   0.00000000       17.4417553       5.81391859    
 Ar   0.00000000       20.3487148       8.72087765    
 Ar   2.90695930       17.4417553       8.72087765    
 Ar   2.90695930       20.3487148       5.81391859    
 Ar   0.00000000       17.4417553       11.6278372    
 Ar   0.00000000       20.3487148       14.5347967    
 Ar   2.90695930       17.4417553       14.5347967    
 Ar   2.90695930       20.3487148       11.6278372    
 Ar   0.00000000       17.4417553       17.4417553    
 Ar   0.00000000       20.3487148       20.3487148    
 Ar   2.90695930       17.4417553       20.3487148    
 Ar   2.90695930       20.3487148       17.4417553    
 Ar   5.81391859       0.00000000       0.00000000    
 Ar   5.81391859       2.90695930       2.90695930    
 Ar   8.72087765       0.00000000       2.90695930    
 Ar   8.72087765       2.90695930       0.00000000    
 Ar   5.81391859       0.00000000       5.81391859    
 Ar   5.81391859       2.90695930       8.72087765    
 Ar   8.72087765       0.00000000       8.72087765    
 Ar   8.72087765       2.90695930       5.81391859    
 Ar   5.81391859       0.00000000       11.6278372    
 Ar   5.81391859       2.90695930       14.5347967    
 Ar   8.72087765       0.00000000       14.5347967    
 Ar   8.72087765       2.90695930       11.6278372    
 Ar   5.81391859       0.00000000       17.4417553    
 Ar   5.81391859       2.90695930       20.3487148    
 Ar   8.72087765       0.00000000       20.3487148    
 Ar   8.72087765       2.90695930       17.4417553    
 Ar   5.81391859       5.81391859       0.00000000    
 Ar   5.81391859       8.72087765       2.90695930    
 Ar   8.72087765       5.81391859       2.90695930    
 Ar   8.72087765       8.72087765       0.00000000    
 Ar   5.81391859       5.81391859       5.81391859    
 Ar   5.81391859       8.72087765       8.72087765    
 Ar   8.72087765       5.81391859       8.72087765    
 Ar   8.72087765       8.72087765       5.81391859    
 Ar   5.81391859       5.81391859       11.6278372    
 Ar   5.81391859       8.72087765       14.5347967    
 Ar   8.72087765       5.81391859       14.5347967    
 Ar   8.72087765       8.72087765       11.6278372    
 Ar   5.81391859       5.81391859       17.4417553    
 Ar   5.81391859       8.72087765       20.3487148    
 Ar   8.72087765       5.81391859       20.3487148    
 Ar   8.72087765       8.72087765       17.4417553    
 Ar   5.81391859       11.6278372       0.00000000    
 Ar   5.81391859       14.5347967       2.90695930    
 Ar   8.72087765       11.6278372       2.90695930    
 Ar   8.72087765       14.5347967       0.00000000    
 Ar   5.81391859       11.6278372       5.81391859    
 Ar   5.81391859       14.5347967       8.72087765    
 Ar   8.72087765       11.6278372       8.72087765    
 Ar   8.72087765       14.5347967       5.81391859    
 Ar   5.81391859       11.6278372       11.6278372    
 Ar   5.81391859       14.5347967       14.5347967    
 Ar   8.72087765       11.6278372       14.5347967    
 Ar   8.72087765       14.5347967       11.6278372    
 Ar   5.81391859       11.6278372       17.4417553    
 Ar   5.81391859       14.5347967       20.3487148    
 Ar   8.72087765       11.6278372       20.3487148    
 Ar   8.72087765       14.5347967       17.4417553    
 Ar   5.81391859       17.4417553       0.00000000    
 Ar   5.81391859       20.3487148       2.90695930    
 Ar   8.72087765       17.4417553       2.90695930    
 Ar   8.72087765       20.3487148       0.00000000    
 Ar   5.81391859       17.4417553       5.81391859    
 Ar   5.81391859       20.3487148       8.72087765    
 Ar   8.72087765       17.4417553       8.72087765    
 Ar   8.72087765       20.3487148       5.81391859    
 Ar   5.81391859       17.4417553       11.6278372    
 Ar   5.81391859       20.3487148       14.5347967    
 Ar   8.72087765       17.4417553       14.5347967    
 Ar   8.72087765       20.3487148       11.6278372    
 Ar   5.81391859       17.4417553       17.4417553    
 Ar   5.81391859       20.3487148       20.3487148    
 Ar   8.72087765       17.4417553       20.3487148    
 Ar   8.72087765       20.3487148       17.4417553    
 Ar   11.6278372       0.00000000       0.00000000    
 Ar   11.6278372       2.90695930       2.90695930    
 Ar   14.5347967       0.00000000       2.90695930    
 Ar   14.5347967       2.90695930       0.00000000    
 Ar   11.6278372       0.00000000       5.81391859    
 Ar   11.6278372       2.90695930       8.72087765    
 Ar   14.5347967       0.00000000       8.72087765    
 Ar   14.5347967       2.90695930       5.81391859    
 Ar   11.6278372       0.00000000       11.6278372    
 Ar   11.6278372       2.90695930       14.5347967    
 Ar   14.5347967       0.00000000       14.5347967    
 Ar   14.5347967       2.90695930       11.6278372    
 Ar   11.6278372       0.00000000       17.4417553    
 Ar   11.6278372       2.90695930       20.3487148    
 Ar   14.5347967       0.00000000       20.3487148    
 Ar   14.5347967       2.90695930       17.4417553    
 Ar   11.6278372       5.81391859       0.00000000    
 Ar   11.6278372       8.72087765       2.90695930    
 Ar   14.5347967       5.81391859       2.90695930    
 Ar   14.5347967       8.72087765       0.00000000    
 Ar   11.6278372       5.81391859       5.81391859    
 Ar   11.6278372       8.72087765       8.72087765    
 Ar   14.5347967       5.81391859       8.72087765    
 Ar   14.5347967       8.72087765       5.81391859    
 Ar   11.6278372       5.81391859       11.6278372    
 Ar   11.6278372       8.72087765       14.5347967    
 Ar   14.5347967       5.81391859       14.5347967    
 Ar   14.5347967       8.72087765       11.6278372    
 Ar   11.6278372       5.81391859       17.4417553    
 Ar   11.6278372       8.72087765       20.3487148    
 Ar   14.5347967       5.81391859       20.3487148    
 Ar   14.5347967       8.72087765       17.4417553    
 Ar   11.6278372       11.6278372       0.00000000    
 Ar   11.6278372       14.5347967       2.90695930    
 Ar   14.5347967       11.6278372       2.90695930    
 Ar   14.5347967       14.5347967       0.00000000    
 Ar   11.6278372       11.6278372       5.81391859    
 Ar   11.6278372       14.5347967       8.72087765    
 Ar   14.5347967       11.6278372       8.72087765    
 Ar   14.5347967       14.5347967       5.81391859    
 Ar   11.6278372       11.6278372       11.6278372    
 Ar   11.6278372       14.5347967       14.5347967    
 Ar   14.5347967       11.6278372       14.5347967    
 Ar   14.5347967       14.5347967       11.6278372    
 Ar   11.6278372       11.6278372       17.4417553    
 Ar   11.6278372       14.5347967       20.3487148    
 Ar   14.5347967       11.6278372       20.3487148    
 Ar   14.5347967       14.5347967       17.4417553    
 Ar   11.6278372       17.4417553       0.00000000    
 Ar   11.6278372       20.3487148       2.90695930    
 Ar   14.5347967       17.4417553       2.90695930    
 Ar   14.5347967       20.3487148       0.00000000    
 Ar   11.6278372       17.4417553       5.81391859    
 Ar   11.6278372       20.3487148       8.72087765    
 Ar   14.5347967       17.4417553       8.72087765    
 Ar   14.5347967       20.3487148       5.81391859    
 Ar   11.6278372       17.4417553       11.6278372    
 Ar   11.6278372       20.3487148       14.5347967    
 Ar   14.5347967       17.4417553       14.5347967    
 Ar   14.5347967       20.3487148       11.6278372    
 Ar   11.6278372       17.4417553       17.4417553    
 Ar   11.6278372       20.3487148       20.3487148    
 Ar   14.5347967       17.4417553       20.3487148    
 Ar   14.5347967       20.3487148       17.4417553    
 Ar   17.4417553       0.00000000       0.00000000    
 Ar   17.4417553       2.90695930       2.90695930    
 Ar   20.3487148       0.00000000       2.90695930    
 Ar   20.3487148       2.90695930       0.00000000    
 Ar   17.4417553       0.00000000       5.81391859    
 Ar   17.4417553       2.90695930       8.72087765    
 Ar   20.3487148       0.00000000       8.72087765    
 Ar   20.3487148       2.90695930       5.81391859    
 Ar   17.4417553       0.00000000       11.6278372    
 Ar   17.4417553       2.90695930       14.5347967    
 Ar   20.3487148       0.00000000       14.5347967    
 Ar   20.3487148       2.90695930       11.6278372    
 Ar   17.4417553       0.00000000       17.4417553    
 Ar   17.4417553       2.90695930       20.3487148    
 Ar   20.3487148       0.00000000       20.3487148    
 Ar   20.3487148       2.90695930       17.4417553    
 Ar   17.4417553       5.81391859       0.00000000    
 Ar   17.4417553       8.72087765       2.90695930    
 Ar   20.3487148       5.81391859       2.90695930    
 Ar   20.3487148       8.72087765       0.00000000    
 Ar   17.4417553       5.81391859       5.81391859    
 Ar   17.4417553       8.72087765       8.72087765    
 Ar   20.3487148       5.81391859       8.72087765    
 Ar   20.3487148       8.72087765       5.81391859    
 Ar   17.4417553       5.81391859       11.6278372    
 Ar   17.4417553       8.72087765       14.5347967    
 Ar   20.3487148       5.81391859       14.5347967    
 Ar   20.3487148       8.72087765       11.6278372    
 Ar   17.4417553       5.81391859       17.4417553    
 Ar   17.4417553       8.72087765       20.3487148    
 Ar   20.3487148       5.81391859       20.3487148    
 Ar   20.3487148       8.72087765       17.4417553    
 Ar   17.4417553       11.6278372       0.00000000    
 Ar   17.4417553       14.5347967       2.90695930    
 Ar   20.3487148       11.6278372       2.90695930    
 Ar   20.3487148       14.5347967       0.00000000    
 Ar   17.4417553       11.6278372       5.81391859    
 Ar   17.4417553       14.5347967       8.72087765    
 Ar   20.3487148       11.6278372       8.72087765    
 Ar   20.3487148       14.5347967       5.81391859    
 Ar   17.4417553       11.6278372       11.6278372    
 Ar   17.4417553       14.5347967       14.5347967    
 Ar   20.3487148       11.6278372       14.5347967    
 Ar   20.3487148       14.5347967       11.6278372    
 Ar   17.4417553       11.6278372       17.4417553    
 Ar   17.4417553       14.5347967       20.3487148    
 Ar   20.3487148       11.6278372       20.3487148    
 Ar   20.3487148       14.5347967       17.4417553    
 Ar   17.4417553       17.4417553       0.00000000    
 Ar   17.4417553       20.3487148       2.90695930    
 Ar   20.3487148       17.4417553       2.90695930    
 Ar   20.3487148       20.3487148       0.00000000    
 Ar   17.4417553       17.4417553       5.81391859    
 Ar   17.4417553       20.3487148       8.72087765    
 Ar   20.3487148       17.4417553       8.72087765    
 Ar   20.3487148       20.3487148       5.81391859    
 Ar   17.4417553       17.4417553       11.6278372    
 Ar   17.4417553       20.3487148       14.5347967    
 Ar   20.3487148       17.4417553       14.5347967    
 Ar   20.3487148       20.3487148       11.6278372    
 Ar   17.4417553       17.4417553       17.4417553    
 Ar   17.4417553       20.3487148       20.3487148    
 Ar   20.3487148       17.4417553       20.3487148    
 Ar   20.3487148       20.3487148       17.4417553    
